288
H192O96
H      -4.149167283548      -4.370491259538       3.420385924814
H      -5.545809350448      -5.176842932825       3.420385924814
O      -5.092089342194      -4.350005692958       3.068437901150
H      -7.950950433548       2.214390315621      -3.722576075186
H      -9.347592500448       1.408038642335      -3.722576075186
O      -8.893872492194       2.234875882201      -4.074524098850
H      -7.950950433548       2.214390315621       3.420385924814
H      -9.347592500448       1.408038642335       3.420385924814
O      -8.893872492194       2.234875882201       3.068437901150
H       3.454399016452      -4.370491259538       3.420385924814
H       2.057756949552      -5.176842932825       3.420385924814
O       2.511476957806      -4.350005692958       3.068437901150
H      -0.347384133548       2.214390315621      -3.722576075186
H      -1.744026200448       1.408038642335      -3.722576075186
O      -1.290306192194       2.234875882201      -4.074524098850
H      -0.347384133548       2.214390315621       3.420385924814
H      -1.744026200448       1.408038642335       3.420385924814
O      -1.290306192194       2.234875882201       3.068437901150
H      -4.149167283548       8.799271890780      -3.722576075186
H      -5.545809350448       7.992920217494      -3.722576075186
O      -5.092089342194       8.819757457360      -4.074524098850
H      -4.149167283548       8.799271890780       3.420385924814
H      -5.545809350448       7.992920217494       3.420385924814
O      -5.092089342194       8.819757457360       3.068437901150
H       7.256182166452       2.214390315621       3.420385924814
H       5.859540099552       1.408038642335       3.420385924814
O       6.313260107806       2.234875882201       3.068437901150
H       3.454399016452       8.799271890780      -3.722576075186
H       2.057756949552       7.992920217494      -3.722576075186
O       2.511476957806       8.819757457360      -4.074524098850
H       3.454399016452       8.799271890780       3.420385924814
H       2.057756949552       7.992920217494       3.420385924814
O       2.511476957806       8.819757457360       3.068437901150
H      -5.059500457032      -4.406451297820       1.403077739736
H      -5.521508352553      -3.606230149281       0.076043973452
O      -5.043605201682      -4.433982687686       0.397562978996
H      -8.861283607032       2.178430277339       1.403077739736
H      -9.323291502553       2.978651425879       0.076043973452
O      -8.845388351682       2.150898887473       0.397562978996
H       2.544065842968      -4.406451297820       1.403077739736
H       2.082057947447      -3.606230149281       0.076043973452
O       2.559961098318      -4.433982687686       0.397562978996
H      -1.257717307032       2.178430277339      -5.739884260264
H      -1.719725202553       2.978651425879      -7.066918026548
O      -1.241822051682       2.150898887473      -6.745399021004
H      -1.257717307032       2.178430277339       8.546039739736
H      -1.719725202553       2.978651425879       7.219005973452
O      -1.241822051682       2.150898887473       7.540524978996
H      -5.059500457032       8.763311852498       1.403077739736
H      -5.521508352553       9.563533001038       0.076043973452
O      -5.043605201682       8.735780462632       0.397562978996
H       6.345848992968       2.178430277339       1.403077739736
H       5.883841097447       2.978651425879       0.076043973452
O       6.361744248318       2.150898887473       0.397562978996
H       2.544065842968       8.763311852498       1.403077739736
H       2.082057947447       9.563533001038       0.076043973452
O       2.559961098318       8.735780462632       0.397562978996
H      -5.512155966004      -0.806351673286      -3.722576075186
H      -5.512155966004       0.806351673286      -3.722576075186
O      -5.022953915612      -0.000000000000      -4.074524098850
H      -5.512155966004      -0.806351673286       3.420385924814
H      -5.512155966004       0.806351673286       3.420385924814
O      -5.022953915612       0.000000000000       3.068437901150
H       2.091410333996      -0.806351673286      -3.722576075186
H       2.091410333996       0.806351673286      -3.722576075186
O       2.580612384388      -0.000000000000      -4.074524098850
H       2.091410333996      -0.806351673286       3.420385924814
H       2.091410333996       0.806351673286       3.420385924814
O       2.580612384388       0.000000000000       3.068437901150
H      -1.710372816004       5.778529901873      -3.722576075186
H      -1.710372816004       7.391233248445      -3.722576075186
O      -1.221170765612       6.584881575159      -4.074524098850
H      -1.710372816004       5.778529901873       3.420385924814
H      -1.710372816004       7.391233248445       3.420385924814
O      -1.221170765612       6.584881575159       3.068437901150
H      -5.088131685935      -0.000000000000      -5.739884260264
H      -4.164115894894      -0.000000000000      -7.066918026548
O      -5.119922196635      -0.000000000000      -6.745399021004
H      -5.088131685935       0.000000000000       1.403077739736
H      -4.164115894894       0.000000000000       0.076043973452
O      -5.119922196635       0.000000000000       0.397562978996
H      -5.088131685935       0.000000000000       8.546039739736
H      -4.164115894894       0.000000000000       7.219005973452
O      -5.119922196635       0.000000000000       7.540524978996
H      -8.889914835935       6.584881575159       1.403077739736
H      -7.965899044894       6.584881575159       0.076043973452
O      -8.921705346635       6.584881575159       0.397562978996
H       2.515434614065      -0.000000000000      -5.739884260264
H       3.439450405106      -0.000000000000      -7.066918026548
O       2.483644103365      -0.000000000000      -6.745399021004
H       2.515434614065       0.000000000000       1.403077739736
H       3.439450405106       0.000000000000       0.076043973452
O       2.483644103365       0.000000000000       0.397562978996
H       2.515434614065       0.000000000000       8.546039739736
H       3.439450405106       0.000000000000       7.219005973452
O       2.483644103365       0.000000000000       7.540524978996
H      -1.286348535935       6.584881575159      -5.739884260264
H      -0.362332744894       6.584881575159      -7.066918026548
O      -1.318139046635       6.584881575159      -6.745399021004
H      -1.286348535935       6.584881575159       1.403077739736
H      -0.362332744894       6.584881575159       0.076043973452
O      -1.318139046635       6.584881575159       0.397562978996
H      -1.286348535935       6.584881575159       8.546039739736
H      -0.362332744894       6.584881575159       7.219005973452
O      -1.318139046635       6.584881575159       7.540524978996
H      -1.744026200448      -1.408038642335      -3.722576075186
H      -0.347384133548      -2.214390315621      -3.722576075186
O      -1.290306192194      -2.234875882201      -4.074524098850
H      -1.744026200448      -1.408038642335       3.420385924814
H      -0.347384133548      -2.214390315621       3.420385924814
O      -1.290306192194      -2.234875882201       3.068437901150
H      -5.545809350448       5.176842932825      -3.722576075186
H      -4.149167283548       4.370491259538      -3.722576075186
O      -5.092089342194       4.350005692958      -4.074524098850
H      -5.545809350448       5.176842932825       3.420385924814
H      -4.149167283548       4.370491259538       3.420385924814
O      -5.092089342194       4.350005692958       3.068437901150
H       2.057756949552       5.176842932825      -3.722576075186
H       3.454399016452       4.370491259538      -3.722576075186
O       2.511476957806       4.350005692958      -4.074524098850
H       2.057756949552       5.176842932825       3.420385924814
H       3.454399016452       4.370491259538       3.420385924814
O       2.511476957806       4.350005692958       3.068437901150
H      -1.257717307032      -2.178430277339      -5.739884260264
H      -1.719725202553      -2.978651425879      -7.066918026548
O      -1.241822051682      -2.150898887473      -6.745399021004
H      -1.257717307032      -2.178430277339       1.403077739736
H      -1.719725202553      -2.978651425879       0.076043973452
O      -1.241822051682      -2.150898887473       0.397562978996
H      -1.257717307032      -2.178430277339       8.546039739736
H      -1.719725202553      -2.978651425879       7.219005973452
O      -1.241822051682      -2.150898887473       7.540524978996
H      -5.059500457032       4.406451297820      -5.739884260264
H      -5.521508352553       3.606230149281      -7.066918026548
O      -5.043605201682       4.433982687686      -6.745399021004
H      -5.059500457032       4.406451297820       1.403077739736
H      -5.521508352553       3.606230149281       0.076043973452
O      -5.043605201682       4.433982687686       0.397562978996
H      -5.059500457032       4.406451297820       8.546039739736
H      -5.521508352553       3.606230149281       7.219005973452
O      -5.043605201682       4.433982687686       7.540524978996
H       2.544065842968       4.406451297820      -5.739884260264
H       2.082057947447       3.606230149281      -7.066918026548
O       2.559961098318       4.433982687686      -6.745399021004
H       2.544065842968       4.406451297820       1.403077739736
H       2.082057947447       3.606230149281       0.076043973452
O       2.559961098318       4.433982687686       0.397562978996
H       2.544065842968       4.406451297820       8.546039739736
H       2.082057947447       3.606230149281       7.219005973452
O       2.559961098318       4.433982687686       7.540524978996
H      -1.257717307032      10.991332872980       1.403077739736
H      -1.719725202553      10.191111724440       0.076043973452
O      -1.241822051682      11.018864262845       0.397562978996
H      -7.256182166452      -2.214390315621      -0.151095075186
H      -5.859540099552      -1.408038642335      -0.151095075186
O      -6.313260107806      -2.234875882201      -0.503043098850
H       0.347384133548      -2.214390315621      -0.151095075186
H       1.744026200448      -1.408038642335      -0.151095075186
O       1.290306192194      -2.234875882201      -0.503043098850
H       0.347384133548      -2.214390315621       6.991866924814
H       1.744026200448      -1.408038642335       6.991866924814
O       1.290306192194      -2.234875882201       6.639918901150
H      -3.454399016452       4.370491259538      -7.294057075186
H      -2.057756949552       5.176842932825      -7.294057075186
O      -2.511476957806       4.350005692958      -7.646005098850
H      -3.454399016452       4.370491259538      -0.151095075186
H      -2.057756949552       5.176842932825      -0.151095075186
O      -2.511476957806       4.350005692958      -0.503043098850
H      -3.454399016452       4.370491259538       6.991866924814
H      -2.057756949552       5.176842932825       6.991866924814
O      -2.511476957806       4.350005692958       6.639918901150
H       4.149167283548       4.370491259538      -0.151095075186
H       5.545809350448       5.176842932825      -0.151095075186
O       5.092089342194       4.350005692958      -0.503043098850
H      -6.345848992968      -2.178430277339      -2.168403260264
H      -5.883841097447      -2.978651425879      -3.495437026548
O      -6.361744248318      -2.150898887473      -3.173918021004
H      -6.345848992968      -2.178430277339       4.974558739736
H      -5.883841097447      -2.978651425879       3.647524973452
O      -6.361744248318      -2.150898887473       3.969043978996
H       1.257717307032      -2.178430277339      -2.168403260264
H       1.719725202553      -2.978651425879      -3.495437026548
O       1.241822051682      -2.150898887473      -3.173918021004
H       1.257717307032      -2.178430277339       4.974558739736
H       1.719725202553      -2.978651425879       3.647524973452
O       1.241822051682      -2.150898887473       3.969043978996
H      -2.544065842968       4.406451297820      -2.168403260264
H      -2.082057947447       3.606230149281      -3.495437026548
O      -2.559961098318       4.433982687686      -3.173918021004
H      -2.544065842968       4.406451297820       4.974558739736
H      -2.082057947447       3.606230149281       3.647524973452
O      -2.559961098318       4.433982687686       3.969043978996
H       5.059500457032       4.406451297820      -2.168403260264
H       5.521508352553       3.606230149281      -3.495437026548
O       5.043605201682       4.433982687686      -3.173918021004
H       5.059500457032       4.406451297820       4.974558739736
H       5.521508352553       3.606230149281       3.647524973452
O       5.043605201682       4.433982687686       3.969043978996
H      -3.454399016452      -4.370491259538      -0.151095075186
H      -2.057756949552      -5.176842932825      -0.151095075186
O      -2.511476957806      -4.350005692958      -0.503043098850
H      -7.256182166452       2.214390315621      -0.151095075186
H      -5.859540099552       1.408038642335      -0.151095075186
O      -6.313260107806       2.234875882201      -0.503043098850
H      -7.256182166452       2.214390315621       6.991866924814
H      -5.859540099552       1.408038642335       6.991866924814
O      -6.313260107806       2.234875882201       6.639918901150
H       0.347384133548       2.214390315621      -7.294057075186
H       1.744026200448       1.408038642335      -7.294057075186
O       1.290306192194       2.234875882201      -7.646005098850
H       0.347384133548       2.214390315621      -0.151095075186
H       1.744026200448       1.408038642335      -0.151095075186
O       1.290306192194       2.234875882201      -0.503043098850
H       0.347384133548       2.214390315621       6.991866924814
H       1.744026200448       1.408038642335       6.991866924814
O       1.290306192194       2.234875882201       6.639918901150
H      -3.454399016452       8.799271890780      -0.151095075186
H      -2.057756949552       7.992920217494      -0.151095075186
O      -2.511476957806       8.819757457360      -0.503043098850
H      -2.544065842968      -4.406451297820      -2.168403260264
H      -2.082057947447      -3.606230149281      -3.495437026548
O      -2.559961098318      -4.433982687686      -3.173918021004
H      -2.544065842968      -4.406451297820       4.974558739736
H      -2.082057947447      -3.606230149281       3.647524973452
O      -2.559961098318      -4.433982687686       3.969043978996
H      -6.345848992968       2.178430277339      -2.168403260264
H      -5.883841097447       2.978651425879      -3.495437026548
O      -6.361744248318       2.150898887473      -3.173918021004
H      -6.345848992968       2.178430277339       4.974558739736
H      -5.883841097447       2.978651425879       3.647524973452
O      -6.361744248318       2.150898887473       3.969043978996
H       1.257717307032       2.178430277339      -2.168403260264
H       1.719725202553       2.978651425879      -3.495437026548
O       1.241822051682       2.150898887473      -3.173918021004
H       1.257717307032       2.178430277339       4.974558739736
H       1.719725202553       2.978651425879       3.647524973452
O       1.241822051682       2.150898887473       3.969043978996
H      -2.544065842968       8.763311852498      -2.168403260264
H      -2.082057947447       9.563533001038      -3.495437026548
O      -2.559961098318       8.735780462632      -3.173918021004
H      -2.544065842968       8.763311852498       4.974558739736
H      -2.082057947447       9.563533001038       3.647524973452
O      -2.559961098318       8.735780462632       3.969043978996
H      -2.091410333996      -0.806351673286      -7.294057075186
H      -2.091410333996       0.806351673286      -7.294057075186
O      -2.580612384388       0.000000000000      -7.646005098850
H      -2.091410333996      -0.806351673286      -0.151095075186
H      -2.091410333996       0.806351673286      -0.151095075186
O      -2.580612384388       0.000000000000      -0.503043098850
H      -2.091410333996      -0.806351673286       6.991866924814
H      -2.091410333996       0.806351673286       6.991866924814
O      -2.580612384388       0.000000000000       6.639918901150
H      -5.893193483996       5.778529901873      -0.151095075186
H      -5.893193483996       7.391233248445      -0.151095075186
O      -6.382395534388       6.584881575159      -0.503043098850
H       5.512155966004      -0.806351673286      -0.151095075186
H       5.512155966004       0.806351673286      -0.151095075186
O       5.022953915612       0.000000000000      -0.503043098850
H       1.710372816004       5.778529901873      -0.151095075186
H       1.710372816004       7.391233248445      -0.151095075186
O       1.221170765612       6.584881575159      -0.503043098850
H       1.710372816004       5.778529901873       6.991866924814
H       1.710372816004       7.391233248445       6.991866924814
O       1.221170765612       6.584881575159       6.639918901150
H      -2.515434614065      -0.000000000000      -2.168403260264
H      -3.439450405106      -0.000000000000      -3.495437026548
O      -2.483644103365      -0.000000000000      -3.173918021004
H      -2.515434614065       0.000000000000       4.974558739736
H      -3.439450405106       0.000000000000       3.647524973452
O      -2.483644103365       0.000000000000       3.969043978996
H      -6.317217764065       6.584881575159      -2.168403260264
H      -7.241233555106       6.584881575159      -3.495437026548
O      -6.285427253365       6.584881575159      -3.173918021004
H      -6.317217764065       6.584881575159       4.974558739736
H      -7.241233555106       6.584881575159       3.647524973452
O      -6.285427253365       6.584881575159       3.969043978996
H       5.088131685935      -0.000000000000      -2.168403260264
H       4.164115894894      -0.000000000000      -3.495437026548
O       5.119922196635      -0.000000000000      -3.173918021004
H       5.088131685935       0.000000000000       4.974558739736
H       4.164115894894       0.000000000000       3.647524973452
O       5.119922196635       0.000000000000       3.969043978996
H       1.286348535935       6.584881575159      -2.168403260264
H       0.362332744894       6.584881575159      -3.495437026548
O       1.318139046635       6.584881575159      -3.173918021004
H       1.286348535935       6.584881575159       4.974558739736
H       0.362332744894       6.584881575159       3.647524973452
O       1.318139046635       6.584881575159       3.969043978996